/*--------------------------------*- C++ -*----------------------------------*\
| =========                 |                                                 |
| \\      /  F ield         | OpenFOAM: The Open Source CFD Toolbox           |
|  \\    /   O peration     | Version:  2.2.0                                 |
|   \\  /    A nd           | Web:      www.OpenFOAM.org                      |
|    \\/     M anipulation  |                                                 |
\*---------------------------------------------------------------------------*/
FoamFile
{
    version     2.0;
    format      ascii;
    class       dictionary;
    location    "system";
    object      fvSolution;
}
// * * * * * * * * * * * * * * * * * * * * * * * * * * * * * * * * * * * * * //

solvers
{
    phi
    {
        solver          smoothSolver;
        smoother        DILU;
        tolerance       1e-06;
        relTol          0;
    }
}

SIMPLE
{
    residualControl
    {
        phi               0.0001;
    }
}

relaxationFactors 
{ 
    equations 
    { 
        phi               0.7; 
    } 
} 


// ************************************************************************* //
